
 *******************************************************************************

         NASA-GLENN CHEMICAL EQUILIBRIUM PROGRAM CEA2, MAY 21, 2004
                   BY  BONNIE MCBRIDE AND SANFORD GORDON
      REFS: NASA RP-1311, PART I, 1994 AND NASA RP-1311, PART II, 1996

 *******************************************************************************



<<<<<<< Updated upstream
 problem rocket eq
     p(psi) = 300
     o/f = 1.5
     pip = 31.5789
=======
 problem rocket fr
     p(psi) = 100
     o/f = 1.2
     pip = 12.6767
>>>>>>> Stashed changes
 reac
     fuel = C3H8O,1propanol t(K) = 293.150 wt% = 100.000
     ox = O2(L) t(K) = 90.170
 outp trans
 end

 OPTIONS: TP=F  HP=F  SP=F  TV=F  UV=F  SV=F  DETN=F  SHOCK=F  REFL=F  INCD=F
 RKT=T  FROZ=F  EQL=T  IONS=F  SIUNIT=T  DEBUGF=F  SHKDBG=F  DETDBG=F  TRNSPT=T

 TRACE= 0.00E+00  S/R= 0.000000E+00  H/R= 0.000000E+00  U/R= 0.000000E+00

<<<<<<< Updated upstream
 Pc,BAR =    20.684191

 Pc/P =    31.5789
=======
 Pc,BAR =     6.894730

 Pc/P =    12.6767
>>>>>>> Stashed changes

 SUBSONIC AREA RATIOS =

 SUPERSONIC AREA RATIOS =

 NFZ=  1  Mdot/Ac= 0.000000E+00  Ac/At= 0.000000E+00

 WARNING!!  AMOUNT MISSING FOR REACTANT  2.
 PROGRAM SETS WEIGHT PERCENT = 100. (REACT)

    REACTANT          WT.FRAC   (ENERGY/R),K   TEMP,K  DENSITY
        EXPLODED FORMULA
 F: C3H8O,1propanol  1.000000  -0.307441E+05   293.15  0.0000
          C  3.00000  H  8.00000  O  1.00000
 O: O2(L)            1.000000  -0.156101E+04    90.17  0.0000
          O  2.00000

  SPECIES BEING CONSIDERED IN THIS SYSTEM
 (CONDENSED PHASE MAY HAVE NAME LISTED SEVERAL TIMES)
  LAST thermo.inp UPDATE:    9/09/04

  g 7/97  *C               tpis79  *CH              g 4/02  CH2            
  g 4/02  CH3              g11/00  CH2OH            g 7/00  CH3O           
  g 8/99  CH4              g 7/00  CH3OH            srd 01  CH3OOH         
  tpis79  *CO              g 9/99  *CO2             tpis91  COOH           
  tpis91  *C2              g 6/01  C2H              g 1/91  C2H2,acetylene 
  g 5/01  C2H2,vinylidene  g 4/02  CH2CO,ketene     g 3/02  O(CH)2O        
  srd 01  HO(CO)2OH        g 7/01  C2H3,vinyl       g 6/96  CH3CO,acetyl   
  g 1/00  C2H4             g 8/88  C2H4O,ethylen-o  g 8/88  CH3CHO,ethanal 
  g 6/00  CH3COOH          srd 01  OHCH2COOH        g 7/00  C2H5           
  g 7/00  C2H6             g 8/88  C2H5OH           g 7/00  CH3OCH3        
  srd 01  CH3O2CH3         g 8/00  C2O              tpis79  *C3            
  n 4/98  C3H3,1-propynl   n 4/98  C3H3,2-propynl   g 2/00  C3H4,allene    
  g 1/00  C3H4,propyne     g 5/90  C3H4,cyclo-      g 3/01  C3H5,allyl     
  g 2/00  C3H6,propylene   g 1/00  C3H6,cyclo-      g 6/01  C3H6O,propylox 
  g 6/97  C3H6O,acetone    g 1/02  C3H6O,propanal   g 7/01  C3H7,n-propyl  
  g 9/85  C3H7,i-propyl    g 2/00  C3H8             g 2/00  C3H8O,1propanol
  g 2/00  C3H8O,2propanol  g 7/88  C3O2             g tpis  *C4            
  g 7/01  C4H2,butadiyne   g 8/00  C4H4,1,3-cyclo-  n10/92  C4H6,butadiene 
  n10/93  C4H6,1butyne     n10/93  C4H6,2butyne     g 8/00  C4H6,cyclo-    
  n 4/88  C4H8,1-butene    n 4/88  C4H8,cis2-buten  n 4/88  C4H8,tr2-butene
  n 4/88  C4H8,isobutene   g 8/00  C4H8,cyclo-      g10/00  (CH3COOH)2     
  n10/84  C4H9,n-butyl     n10/84  C4H9,i-butyl     g 1/93  C4H9,s-butyl   
  g 1/93  C4H9,t-butyl     g12/00  C4H10,n-butane   g 8/00  C4H10,isobutane
  g 8/00  *C5              g 5/90  C5H6,1,3cyclo-   g 1/93  C5H8,cyclo-    
  n 4/87  C5H10,1-pentene  g 2/01  C5H10,cyclo-     n10/84  C5H11,pentyl   
  g 1/93  C5H11,t-pentyl   n10/85  C5H12,n-pentane  n10/85  C5H12,i-pentane
  n10/85  CH3C(CH3)2CH3    g 2/93  C6H2             g11/00  C6H5,phenyl    
  g 8/00  C6H5O,phenoxy    g 8/00  C6H6             g 8/00  C6H5OH,phenol  
  g 1/93  C6H10,cyclo-     n 4/87  C6H12,1-hexene   g 6/90  C6H12,cyclo-   
  n10/83  C6H13,n-hexyl    g 6/01  C6H14,n-hexane   g 7/01  C7H7,benzyl    
  g 1/93  C7H8             g12/00  C7H8O,cresol-mx  n 4/87  C7H14,1-heptene
  n10/83  C7H15,n-heptyl   n10/85  C7H16,n-heptane  n10/85  C7H16,2-methylh
  n 4/89  C8H8,styrene     n10/86  C8H10,ethylbenz  n 4/87  C8H16,1-octene 
  n10/83  C8H17,n-octyl    n 4/85  C8H18,n-octane   n 4/85  C8H18,isooctane
  n10/83  C9H19,n-nonyl    g 3/01  C10H8,naphthale  n10/83  C10H21,n-decyl 
  g 8/00  C12H9,o-bipheny  g 8/00  C12H10,biphenyl  g 6/97  *H             
  g 1/01  HCO              g 6/01  HCCO             g 4/02  HO2            
  tpis78  *H2              g 5/01  HCHO,formaldehy  g 6/01  HCOOH          
  g 8/89  H2O              g 6/99  H2O2             g 6/01  (HCOOH)2       
  g 5/97  *O               g 4/02  *OH              tpis89  *O2            
  g 8/01  O3               n 4/83  C(gr)            n 4/83  C(gr)          
  n 4/83  C(gr)            g11/99  H2O(cr)          g 8/01  H2O(L)         
  g 8/01  H2O(L)         

 SPECIES WITH TRANSPORT PROPERTIES

        PURE SPECIES

  C                 CH4               CH3OH             CO              
  CO2               C2H2,acetylene  
  C2H4              C2H6              C2H5OH            H               
  H2                H2O             
  O                 OH                O2              

     BINARY INTERACTIONS

     C               O               
     CH4             O2              
     CO              CO2             
     CO              O2              
     CO2             H2              
     CO2             H2O             
     CO2             O2              
     H               H2              
     H               O               
     H2              H2O             
     H2              O2              
     H2O             O2              
     O               O2              


<<<<<<< Updated upstream
 O/F =   1.500000

                       EFFECTIVE FUEL     EFFECTIVE OXIDANT        MIXTURE
 ENTHALPY                  h(2)/R              h(1)/R               h0/R
 (KG-MOL)(K)/KG       -0.51159158E+03     -0.48783267E+02     -0.23390659E+03

 KG-FORM.WT./KG             bi(2)               bi(1)               b0i
  *C                   0.49920942E-01      0.00000000E+00      0.19968377E-01
  *H                   0.13312251E+00      0.00000000E+00      0.53249005E-01
  *O                   0.16640314E-01      0.62502344E-01      0.44157532E-01

 POINT ITN      T            C           H           O 
   1   22    3175.389     -14.760      -9.939     -16.917
 Pinf/Pt = 1.741820
   2    4    2975.077     -14.853     -10.092     -17.422
 Pinf/Pt = 1.746163
   2    2    2974.175     -14.853     -10.093     -17.424
   3    5    1912.094     -13.711     -10.710     -22.451
=======
 O/F =   1.200000

                       EFFECTIVE FUEL     EFFECTIVE OXIDANT        MIXTURE
 ENTHALPY                  h(2)/R              h(1)/R               h0/R
 (KG-MOL)(K)/KG       -0.54666124E+03     -0.48783267E+02     -0.27509143E+03

 KG-FORM.WT./KG             bi(2)               bi(1)               b0i
  *C                   0.49920942E-01      0.00000000E+00      0.22691337E-01
  *H                   0.13312251E+00      0.00000000E+00      0.60510233E-01
  *O                   0.16640314E-01      0.62502344E-01      0.41655967E-01

 POINT ITN      T            C           H           O 
   1   21    2646.932     -13.524      -9.894     -19.270
>>>>>>> Stashed changes





              THEORETICAL ROCKET PERFORMANCE ASSUMING EQUILIBRIUM

<<<<<<< Updated upstream
           COMPOSITION DURING EXPANSION FROM INFINITE AREA COMBUSTOR

 Pin =   300.0 PSIA
=======
 Pin =   100.0 PSIA
>>>>>>> Stashed changes
 CASE =                

             REACTANT                    WT FRACTION      ENERGY      TEMP
                                          (SEE NOTE)     KJ/KG-MOL      K  
 FUEL        C3H8O,1propanol              1.0000000   -255622.181    293.150
 OXIDANT     O2(L)                        1.0000000    -12979.000     90.170

<<<<<<< Updated upstream
 O/F=    1.50000  %FUEL= 40.000000  R,EQ.RATIO= 1.507359  PHI,EQ.RATIO= 1.597410

                 CHAMBER   THROAT     EXIT
 Pinf/P            1.0000   1.7462   31.579
 P, BAR            20.684   11.846  0.65500
 T, K             3175.39  2974.18  1912.09
 RHO, KG/CU M    1.6373 0 1.0101 0 8.8401-2
 H, KJ/KG        -1944.82 -2623.59 -5375.98
 U, KJ/KG        -3208.13 -3796.24 -6116.92
 G, KJ/KG        -41477.5 -39651.2 -29181.0
 S, KJ/(KG)(K)    12.4497  12.4497  12.4497

 M, (1/n)          20.899   21.088   21.457
 (dLV/dLP)t      -1.01455 -1.00949 -1.00014
 (dLV/dLT)p        1.2841   1.1968   1.0041
 Cp, KJ/(KG)(K)    4.4934   3.8759   2.1917
 GAMMAs            1.1513   1.1577   1.2167
 SON VEL,M/SEC     1206.0   1165.1    949.5
 MACH NUMBER        0.000    1.000    2.759
=======
 O/F=    1.20000  %FUEL= 45.454545  R,EQ.RATIO= 1.815773  PHI,EQ.RATIO= 1.996763

                 CHAMBER   THROAT     EXIT
 Pinf/P            1.0000   1.7971   12.677
 P, BAR            6.8947   3.8367  0.54389
 T, K             2646.93  2364.27  1595.71
 RHO, KG/CU M    5.8816-1 3.6642-1 7.6962-2
 H, KJ/KG        -2287.25 -2937.09 -4632.51
 U, KJ/KG        -3459.51 -3984.17 -5339.21
 G, KJ/KG        -37594.9 -34474.3 -25917.8
 S, KJ/(KG)(K)    13.3391  13.3391  13.3391

 M, (1/n)          18.774   18.774   18.774
 Cp, KJ/(KG)(K)    2.3181   2.2786   2.1175
 GAMMAs            1.2362   1.2413   1.2645
 SON VEL,M/SEC     1203.8   1140.0    945.3
 MACH NUMBER        0.000    1.000    2.291
>>>>>>> Stashed changes

 TRANSPORT PROPERTIES (GASES ONLY)
   CONDUCTIVITY IN UNITS OF MILLIWATTS/(CM)(K)

<<<<<<< Updated upstream
 VISC,MILLIPOISE  0.99783  0.95287  0.69642

  WITH EQUILIBRIUM REACTIONS

 Cp, KJ/(KG)(K)    4.4934   3.8759   2.1917
 CONDUCTIVITY      9.9249   8.0918   2.4709
 PRANDTL NUMBER    0.4518   0.4564   0.6177

  WITH FROZEN REACTIONS

 Cp, KJ/(KG)(K)    2.2497   2.2322   2.0834
 CONDUCTIVITY      3.5602   3.3485   2.2451
 PRANDTL NUMBER    0.6305   0.6352   0.6463

 PERFORMANCE PARAMETERS

 Ae/At                      1.0000   5.0824
 CSTAR, M/SEC               1757.4   1757.4
 CF                         0.6630   1.4906
 Ivac, M/SEC                2171.6   2902.4
 Isp, M/SEC                 1165.1   2619.6


 MOLE FRACTIONS

 *CO              0.31768  0.31575  0.29090
 *CO2             0.09962  0.10533  0.13756
 *H               0.02283  0.01687  0.00047
 HCO              0.00001  0.00000  0.00000
 HO2              0.00001  0.00000  0.00000
 *H2              0.15570  0.15813  0.18962
 H2O              0.37802  0.38759  0.38137
 *O               0.00183  0.00088  0.00000
 *OH              0.02255  0.01459  0.00009
 *O2              0.00174  0.00085  0.00000
=======
 VISC,MILLIPOISE  0.84197  0.77584  0.58354

  WITH FROZEN REACTIONS

 Cp, KJ/(KG)(K)    2.3181   2.2786   2.1175
 CONDUCTIVITY      3.3287   2.9977   2.0672
 PRANDTL NUMBER    0.5864   0.5897   0.5978

 PERFORMANCE PARAMETERS

 Ae/At                      1.0000   2.5062
 CSTAR, M/SEC               1650.5   1650.5
 CF                         0.6907   1.3122
 Ivac, M/SEC                2058.5   2492.1
 Isp, M/SEC                 1140.0   2165.8

 MOLE FRACTIONS

 *CO             0.36562   *CO2            0.06038   *H              0.00917
 *H2             0.26919   H2O             0.29291   *O              0.00005
 *OH             0.00265   *O2             0.00002
>>>>>>> Stashed changes

  * THERMODYNAMIC PROPERTIES FITTED TO 20000.K

    PRODUCTS WHICH WERE CONSIDERED BUT WHOSE MOLE FRACTIONS
    WERE LESS THAN 5.000000E-06 FOR ALL ASSIGNED CONDITIONS

 *C              *CH             CH2             CH3             CH2OH          
 CH3O            CH4             CH3OH           CH3OOH          COOH           
 *C2             C2H             C2H2,acetylene  C2H2,vinylidene CH2CO,ketene   
 O(CH)2O         HO(CO)2OH       C2H3,vinyl      CH3CO,acetyl    C2H4           
 C2H4O,ethylen-o CH3CHO,ethanal  CH3COOH         OHCH2COOH       C2H5           
 C2H6            C2H5OH          CH3OCH3         CH3O2CH3        C2O            
 *C3             C3H3,1-propynl  C3H3,2-propynl  C3H4,allene     C3H4,propyne   
 C3H4,cyclo-     C3H5,allyl      C3H6,propylene  C3H6,cyclo-     C3H6O,propylox 
 C3H6O,acetone   C3H6O,propanal  C3H7,n-propyl   C3H7,i-propyl   C3H8           
 C3H8O,1propanol C3H8O,2propanol C3O2            *C4             C4H2,butadiyne 
 C4H4,1,3-cyclo- C4H6,butadiene  C4H6,1butyne    C4H6,2butyne    C4H6,cyclo-    
 C4H8,1-butene   C4H8,cis2-buten C4H8,tr2-butene C4H8,isobutene  C4H8,cyclo-    
 (CH3COOH)2      C4H9,n-butyl    C4H9,i-butyl    C4H9,s-butyl    C4H9,t-butyl   
 C4H10,n-butane  C4H10,isobutane *C5             C5H6,1,3cyclo-  C5H8,cyclo-    
 C5H10,1-pentene C5H10,cyclo-    C5H11,pentyl    C5H11,t-pentyl  C5H12,n-pentane
 C5H12,i-pentane CH3C(CH3)2CH3   C6H2            C6H5,phenyl     C6H5O,phenoxy  
 C6H6            C6H5OH,phenol   C6H10,cyclo-    C6H12,1-hexene  C6H12,cyclo-   
 C6H13,n-hexyl   C6H14,n-hexane  C7H7,benzyl     C7H8            C7H8O,cresol-mx
 C7H14,1-heptene C7H15,n-heptyl  C7H16,n-heptane C7H16,2-methylh C8H8,styrene   
 C8H10,ethylbenz C8H16,1-octene  C8H17,n-octyl   C8H18,n-octane  C8H18,isooctane
 C9H19,n-nonyl   C10H8,naphthale C10H21,n-decyl  C12H9,o-bipheny C12H10,biphenyl
 HCCO            HCHO,formaldehy HCOOH           H2O2            (HCOOH)2       
 O3              C(gr)           H2O(cr)         H2O(L)         

 NOTE. WEIGHT FRACTION OF FUEL IN TOTAL FUELS AND OF OXIDANT IN TOTAL OXIDANTS



