
 *******************************************************************************

         NASA-GLENN CHEMICAL EQUILIBRIUM PROGRAM CEA2, MAY 21, 2004
                   BY  BONNIE MCBRIDE AND SANFORD GORDON
      REFS: NASA RP-1311, PART I, 1994 AND NASA RP-1311, PART II, 1996

 *******************************************************************************



 problem rocket eq
     p(psi) = 1200
     o/f = 6
     pip = 600
 reac
     fuel = H2(L) t(K) = 20.380 wt% = 100.000
     ox = O2(L) t(K) = 90.170
 outp trans
 end

 OPTIONS: TP=F  HP=F  SP=F  TV=F  UV=F  SV=F  DETN=F  SHOCK=F  REFL=F  INCD=F
 RKT=T  FROZ=F  EQL=T  IONS=F  SIUNIT=T  DEBUGF=F  SHKDBG=F  DETDBG=F  TRNSPT=T

 TRACE= 0.00E+00  S/R= 0.000000E+00  H/R= 0.000000E+00  U/R= 0.000000E+00

 Pc,BAR =    82.736765

 Pc/P =   600.0000

 SUBSONIC AREA RATIOS =

 SUPERSONIC AREA RATIOS =

 NFZ=  1  Mdot/Ac= 0.000000E+00  Ac/At= 0.000000E+00

 WARNING!!  AMOUNT MISSING FOR REACTANT  2.
 PROGRAM SETS WEIGHT PERCENT = 100. (REACT)

    REACTANT          WT.FRAC   (ENERGY/R),K   TEMP,K  DENSITY
        EXPLODED FORMULA
 F: H2(L)            1.000000  -0.108389E+04    20.38  0.0000
          H  2.00000
 O: O2(L)            1.000000  -0.156101E+04    90.17  0.0000
          O  2.00000

  SPECIES BEING CONSIDERED IN THIS SYSTEM
 (CONDENSED PHASE MAY HAVE NAME LISTED SEVERAL TIMES)
  LAST thermo.inp UPDATE:    9/09/04

  g 6/97  *H               g 4/02  HO2              tpis78  *H2            
  g 8/89  H2O              g 6/99  H2O2             g 5/97  *O             
  g 4/02  *OH              tpis89  *O2              g 8/01  O3             
  g11/99  H2O(cr)          g 8/01  H2O(L)           g 8/01  H2O(L)         

 SPECIES WITH TRANSPORT PROPERTIES

        PURE SPECIES

  H                 H2                H2O               O               
  OH                O2              

     BINARY INTERACTIONS

     H               H2              
     H               O               
     H2              H2O             
     H2              O2              
     H2O             O2              
     O               O2              


 O/F =   6.000000

                       EFFECTIVE FUEL     EFFECTIVE OXIDANT        MIXTURE
 ENTHALPY                  h(2)/R              h(1)/R               h0/R
 (KG-MOL)(K)/KG       -0.53767500E+03     -0.48783267E+02     -0.11862494E+03

 KG-FORM.WT./KG             bi(2)               bi(1)               b0i
  *H                   0.99212255E+00      0.00000000E+00      0.14173179E+00
  *O                   0.00000000E+00      0.62502344E-01      0.53573438E-01

 POINT ITN      T            H           O 
   1    9    3503.336      -9.192     -16.116
 Pinf/Pt = 1.735655
   2    4    3307.093      -9.368     -16.471
 Pinf/Pt = 1.735988
   2    1    3307.026      -9.368     -16.471
   3    5    1365.573     -10.862     -27.763





              THEORETICAL ROCKET PERFORMANCE ASSUMING EQUILIBRIUM

           COMPOSITION DURING EXPANSION FROM INFINITE AREA COMBUSTOR

 Pin =  1200.0 PSIA
 CASE =                

             REACTANT                    WT FRACTION      ENERGY      TEMP
                                          (SEE NOTE)     KJ/KG-MOL      K  
 FUEL        H2(L)                        1.0000000     -9012.000     20.380
 OXIDANT     O2(L)                        1.0000000    -12979.000     90.170

 O/F=    6.00000  %FUEL= 14.285714  R,EQ.RATIO= 1.322780  PHI,EQ.RATIO= 1.322780

                 CHAMBER   THROAT     EXIT
 Pinf/P            1.0000   1.7360   600.00
 P, BAR            82.737   47.660  0.13789
 T, K             3503.34  3307.03  1365.57
 RHO, KG/CU M    3.8303 0 2.3624 0 1.7138-2
 H, KJ/KG         -986.31 -2137.99 -10155.2
 U, KJ/KG        -3146.38 -4155.43 -10959.8
 G, KJ/KG        -63100.2 -60771.3 -34366.7
 S, KJ/(KG)(K)    17.7299  17.7299  17.7299

 M, (1/n)          13.485   13.629   14.111
 (dLV/dLP)t      -1.02417 -1.01859 -1.00000
 (dLV/dLT)p        1.4283   1.3488   1.0000
 Cp, KJ/(KG)(K)    8.5015   7.7769   3.0049
 GAMMAs            1.1413   1.1417   1.2439
 SON VEL,M/SEC     1570.1   1517.7   1000.4
 MACH NUMBER        0.000    1.000    4.280

 TRANSPORT PROPERTIES (GASES ONLY)
   CONDUCTIVITY IN UNITS OF MILLIWATTS/(CM)(K)

 VISC,MILLIPOISE   1.0630   1.0187  0.50330

  WITH EQUILIBRIUM REACTIONS

 Cp, KJ/(KG)(K)    8.5015   7.7769   3.0049
 CONDUCTIVITY     16.7766  14.6619   2.1310
 PRANDTL NUMBER    0.5387   0.5404   0.7097

  WITH FROZEN REACTIONS

 Cp, KJ/(KG)(K)    3.7810   3.7475   3.0039
 CONDUCTIVITY      5.6775   5.3559   2.1288
 PRANDTL NUMBER    0.7079   0.7128   0.7102

 PERFORMANCE PARAMETERS

 Ae/At                      1.0000   48.854
 CSTAR, M/SEC               2307.6   2307.6
 CF                         0.6577   1.8557
 Ivac, M/SEC                2847.0   4470.2
 Isp, M/SEC                 1517.7   4282.3


 MOLE FRACTIONS

 *H               0.03263  0.02672  0.00000
 HO2              0.00003  0.00002  0.00000
 *H2              0.24818  0.24531  0.24401
 H2O              0.66936  0.69055  0.75598
 H2O2             0.00001  0.00001  0.00000
 *O               0.00310  0.00199  0.00000
 *OH              0.04347  0.03324  0.00000
 *O2              0.00321  0.00217  0.00000

  * THERMODYNAMIC PROPERTIES FITTED TO 20000.K

    PRODUCTS WHICH WERE CONSIDERED BUT WHOSE MOLE FRACTIONS
    WERE LESS THAN 5.000000E-06 FOR ALL ASSIGNED CONDITIONS

 O3              H2O(cr)         H2O(L)         

 NOTE. WEIGHT FRACTION OF FUEL IN TOTAL FUELS AND OF OXIDANT IN TOTAL OXIDANTS



